/COM,Composite Solid Model SolidModel.1
/COM,Generated with: ACP Version 2019 R3
/COM,Copyright (c) 2005 - 2020 by ANSYS Switzerland GmbH
/COM,Unauthorized use, distribution, or duplication is prohibited.
/COM,Last updated: 2020-Mar-18 14:04:44
/COM,Data in consistent MKS units.
/UNITS,MKS
/NOPR
/PREP7
SHPP, OFF
! Layered linear structural solid 8n element
ET, 185,185
KEYOPT, 185, 3, 1
KEYOPT, 185, 8, 1
! Layered quadratic structural solid 20n element
ET, 186,186
KEYOPT, 186, 3, 1
KEYOPT, 186, 8, 1
! Layered linear structural solid-shell 8n element
ET, 190,190
KEYOPT, 190, 8, 1
! Homogeneous linear structural solid 8n element
ET, 1,185
! Homogeneous quadratic structural solid 20n element
ET, 2,186
NBLOCK,6,SOLID
(3i9,6e16.9)
     4467        0        0   7.6470369e-02   6.1940971e-03   0.0000000e+00
     4468        0        0   7.5908384e-02   5.5630536e-03   0.0000000e+00
     4469        0        0   7.7095446e-02   4.9874531e-03   0.0000000e+00
     4470        0        0   7.6470369e-02   6.1940971e-03   1.0000000e-03
     4471        0        0   7.5908384e-02   5.5630536e-03   1.0000000e-03
     4472        0        0   7.7095446e-02   4.9874531e-03   8.2440315e-04
     4473        0        0   7.3989518e-02   2.1597271e-02   0.0000000e+00
     4474        0        0   7.2622464e-02   2.2070309e-02   0.0000000e+00
     4475        0        0   7.2770842e-02   2.1155340e-02   0.0000000e+00
     4476        0        0   7.3989518e-02   2.1597271e-02   1.0000000e-03
     4477        0        0   7.2622464e-02   2.2070309e-02   1.0000000e-03
     4478        0        0   7.2770842e-02   2.1155340e-02   1.0000000e-03
     4479        0        0   7.3108690e-02   2.6723861e-03   0.0000000e+00
     4480        0        0   7.2889382e-02   3.4203052e-03   0.0000000e+00
     4481        0        0   7.2004310e-02   2.9579358e-03   0.0000000e+00
     4482        0        0   7.3108690e-02   2.6723861e-03   1.0000000e-03
     4483        0        0   7.2889382e-02   3.4203052e-03   1.0000000e-03
     4484        0        0   7.2004310e-02   2.9579358e-03   1.0000000e-03
     4485        0        0   6.8433937e-02   1.4702588e-02   0.0000000e+00
     4486        0        0   6.7866501e-02   1.4914253e-02   0.0000000e+00
! ... 14375 like lines cut
N,R5.3,LOC,     -1,
LOCAL,R5.0,LOC,11,0,0.0764914,0.00558153,0.000470734
LOCAL,R5.0,ANG,11,0,-0.0672648,2.61801,2.94306
LOCAL,R5.0,PRM,11,0,1.0,1.0
CSCIR,11,0,0
LOCAL,R5.0,LOC,12,0,0.0731276,0.0216076,0.0005
LOCAL,R5.0,ANG,12,0,-3.81667e-14,0,-0
LOCAL,R5.0,PRM,12,0,1.0,1.0
CSCIR,12,0,0
LOCAL,R5.0,LOC,13,0,0.0763715,0.0202206,0.000445172
LOCAL,R5.0,ANG,13,0,0.102312,-2.85704,5.38003
LOCAL,R5.0,PRM,13,0,1.0,1.0
CSCIR,13,0,0
LOCAL,R5.0,LOC,14,0,0.0754397,0.00260308,0.000442731
LOCAL,R5.0,ANG,14,0,-0.174573,3.31796,6.00992
LOCAL,R5.0,PRM,14,0,1.0,1.0
CSCIR,14,0,0
LOCAL,R5.0,LOC,15,0,0.0760135,0.00364095,0.000443736
LOCAL,R5.0,ANG,15,0,-0.200641,2.98304,6.13464
LOCAL,R5.0,PRM,15,0,1.0,1.0
CSCIR,15,0,0
LOCAL,R5.0,LOC,16,0,0.0770917,0.00588247,0.000447479
LOCAL,R5.0,ANG,16,0,-0.308537,3.03136,7.00556
LOCAL,R5.0,PRM,16,0,1.0,1.0
CSCIR,16,0,0
LOCAL,R5.0,LOC,17,0,0.0763747,0.00472355,0.000450435
LOCAL,R5.0,ANG,17,0,-0.241003,3.47929,5.53262
LOCAL,R5.0,PRM,17,0,1.0,1.0
CSCIR,17,0,0
LOCAL,R5.0,LOC,18,0,0.0761798,0.00894378,0.00043173
LOCAL,R5.0,ANG,18,0,0.354648,-3.91576,7.60888
LOCAL,R5.0,PRM,18,0,1.0,1.0
CSCIR,18,0,0
LOCAL,R5.0,LOC,19,0,0.0771963,0.0072081,0.000427366
LOCAL,R5.0,ANG,19,0,0.311963,-4.67805,8.53021
LOCAL,R5.0,PRM,19,0,1.0,1.0
CSCIR,19,0,0
LOCAL,R5.0,LOC,20,0,0.076693,0.00807795,0.000429723
LOCAL,R5.0,ANG,20,0,0.403909,-4.40946,8.90356
LOCAL,R5.0,PRM,20,0,1.0,1.0
CSCIR,20,0,0
LOCAL,R5.0,LOC,21,0,0.0752687,0.0107757,0.000430535
LOCAL,R5.0,ANG,21,0,0.3039,-3.65009,7.14168
LOCAL,R5.0,PRM,21,0,1.0,1.0
CSCIR,21,0,0
LOCAL,R5.0,LOC,22,0,0.0746615,0.0130461,0.000432399
LOCAL,R5.0,ANG,22,0,-0.3504,1.7927,9.2868
LOCAL,R5.0,PRM,22,0,1.0,1.0
CSCIR,22,0,0
LOCAL,R5.0,LOC,23,0,0.0748917,0.011853,0.000427965
LOCAL,R5.0,ANG,23,0,0.187822,-2.68562,8.42693
LOCAL,R5.0,PRM,23,0,1.0,1.0
CSCIR,23,0,0
LOCAL,R5.0,LOC,24,0,0.0754358,0.0152305,0.000444591
LOCAL,R5.0,ANG,24,0,-0.117953,2.57158,5.01892
LOCAL,R5.0,PRM,24,0,1.0,1.0
CSCIR,24,0,0
LOCAL,R5.0,LOC,25,0,0.0748871,0.0141741,0.00044122
LOCAL,R5.0,ANG,25,0,-0.229384,2.9688,4.94264
LOCAL,R5.0,PRM,25,0,1.0,1.0
CSCIR,25,0,0
LOCAL,R5.0,LOC,26,0,0.0766063,0.0171776,0.000438323
LOCAL,R5.0,ANG,26,0,-0.116802,3.13928,6.32693
LOCAL,R5.0,PRM,26,0,1.0,1.0
CSCIR,26,0,0
LOCAL,R5.0,LOC,27,0,0.0771058,0.0180179,0.000433845
LOCAL,R5.0,ANG,27,0,-0.11058,3.26399,6.58216
LOCAL,R5.0,PRM,27,0,1.0,1.0
CSCIR,27,0,0
LOCAL,R5.0,LOC,28,0,0.07706,0.0193993,0.00043739
LOCAL,R5.0,ANG,28,0,0.140651,-3.7522,6.63183
LOCAL,R5.0,PRM,28,0,1.0,1.0
CSCIR,28,0,0
LOCAL,R5.0,LOC,29,0,0.0754319,0.0223145,0.000445126
LOCAL,R5.0,ANG,29,0,0.162895,-2.46245,4.8108
LOCAL,R5.0,PRM,29,0,1.0,1.0
CSCIR,29,0,0
LOCAL,R5.0,LOC,30,0,0.0758117,0.0212208,0.000448047
LOCAL,R5.0,ANG,30,0,0.0624764,-1.86272,4.04917
LOCAL,R5.0,PRM,30,0,1.0,1.0
CSCIR,30,0,0
LOCAL,R5.0,LOC,31,0,0.0750335,0.0233908,0.000439822
LOCAL,R5.0,ANG,31,0,0.158472,-3.35349,6.66755
LOCAL,R5.0,PRM,31,0,1.0,1.0
CSCIR,31,0,0
LOCAL,R5.0,LOC,32,0,0.0776751,0.00642603,0.000385718
LOCAL,R5.0,ANG,32,0,-0.250925,-0.717765,8.39887
LOCAL,R5.0,PRM,32,0,1.0,1.0
CSCIR,32,0,0
LOCAL,R5.0,LOC,33,0,0.0748992,0.00158031,0.000441102
LOCAL,R5.0,ANG,33,0,-0.29024,2.97623,5.84347
LOCAL,R5.0,PRM,33,0,1.0,1.0
CSCIR,33,0,0
LOCAL,R5.0,LOC,34,0,0.0776538,0.0187171,0.000384763
LOCAL,R5.0,ANG,34,0,0.194078,1.59556,9.03727
LOCAL,R5.0,PRM,34,0,1.0,1.0
CSCIR,34,0,0
LOCAL,R5.0,LOC,35,0,0.0746333,0.0244642,0.000435573
LOCAL,R5.0,ANG,35,0,0.182588,-3.15448,7.36347
LOCAL,R5.0,PRM,35,0,1.0,1.0
CSCIR,35,0,0
LOCAL,R5.0,LOC,36,0,0.07565,0.0245174,0.000306718
LOCAL,R5.0,ANG,36,0,0.380914,-3.8158,6.25117
LOCAL,R5.0,PRM,36,0,1.0,1.0
CSCIR,36,0,0
LOCAL,R5.0,LOC,37,0,0.0760794,0.0235549,0.000319465
LOCAL,R5.0,ANG,37,0,0.302182,-3.91418,5.04984
LOCAL,R5.0,PRM,37,0,1.0,1.0
CSCIR,37,0,0
LOCAL,R5.0,LOC,38,0,0.0765113,0.0225943,0.000335378
LOCAL,R5.0,ANG,38,0,0.193138,-3.32535,4.13487
LOCAL,R5.0,PRM,38,0,1.0,1.0
CSCIR,38,0,0
LOCAL,R5.0,LOC,39,0,0.0769413,0.021652,0.000344142
LOCAL,R5.0,ANG,39,0,0.10542,-2.3057,4.1967
LOCAL,R5.0,PRM,39,0,1.0,1.0
CSCIR,39,0,0
LOCAL,R5.0,LOC,40,0,0.0774195,0.0207481,0.000335515
LOCAL,R5.0,ANG,40,0,0.00153962,-1.37844,6.07452
LOCAL,R5.0,PRM,40,0,1.0,1.0
CSCIR,40,0,0
LOCAL,R5.0,LOC,41,0,0.0779368,0.0198967,0.000312171
LOCAL,R5.0,ANG,41,0,0.0528786,-1.83088,8.12945
LOCAL,R5.0,PRM,41,0,1.0,1.0
CSCIR,41,0,0
LOCAL,R5.0,LOC,42,0,0.0783979,0.0191123,0.000280831
LOCAL,R5.0,ANG,42,0,0.181488,-1.86565,5.79125
LOCAL,R5.0,PRM,42,0,1.0,1.0
CSCIR,42,0,0
LOCAL,R5.0,LOC,43,0,0.0783857,0.0183573,0.000278639
LOCAL,R5.0,ANG,43,0,-0.315944,0.930713,8.24391
LOCAL,R5.0,PRM,43,0,1.0,1.0
CSCIR,43,0,0
LOCAL,R5.0,LOC,44,0,0.0779408,0.017565,0.000301534
LOCAL,R5.0,ANG,44,0,-0.101055,2.2542,6.92689
LOCAL,R5.0,PRM,44,0,1.0,1.0
CSCIR,44,0,0
LOCAL,R5.0,LOC,45,0,0.0774753,0.0167085,0.000314969
LOCAL,R5.0,ANG,45,0,-0.08471,1.99856,6.09693
LOCAL,R5.0,PRM,45,0,1.0,1.0
CSCIR,45,0,0
LOCAL,R5.0,LOC,46,0,0.0769888,0.0158095,0.000326691
LOCAL,R5.0,ANG,46,0,-0.080758,1.74023,5.34398
LOCAL,R5.0,PRM,46,0,1.0,1.0
CSCIR,46,0,0
LOCAL,R5.0,LOC,47,0,0.0764966,0.0148823,0.000333773
LOCAL,R5.0,ANG,47,0,-0.1434,2.17372,4.90197
LOCAL,R5.0,PRM,47,0,1.0,1.0
CSCIR,47,0,0
LOCAL,R5.0,LOC,48,0,0.0760358,0.0139413,0.00032366
LOCAL,R5.0,ANG,48,0,-0.441791,4.71307,5.59573
LOCAL,R5.0,PRM,48,0,1.0,1.0
CSCIR,48,0,0
LOCAL,R5.0,LOC,49,0,0.0756846,0.0129793,0.000297198
LOCAL,R5.0,ANG,49,0,-1.35281,7.31983,10.3942
LOCAL,R5.0,PRM,49,0,1.0,1.0
CSCIR,49,0,0
LOCAL,R5.0,LOC,50,0,0.0757422,0.011998,0.000283895
LOCAL,R5.0,ANG,50,0,0.472331,-4.16609,7.9533
LOCAL,R5.0,PRM,50,0,1.0,1.0
CSCIR,50,0,0
LOCAL,R5.0,LOC,51,0,0.076156,0.0110432,0.000291606
LOCAL,R5.0,ANG,51,0,0.429131,-4.46395,6.93477
LOCAL,R5.0,PRM,51,0,1.0,1.0
CSCIR,51,0,0
LOCAL,R5.0,LOC,52,0,0.0770605,0.00923659,0.00029519
LOCAL,R5.0,ANG,52,0,0.31457,-3.47488,7.82633
LOCAL,R5.0,PRM,52,0,1.0,1.0
CSCIR,52,0,0
LOCAL,R5.0,LOC,53,0,0.0775188,0.00835466,0.000289168
LOCAL,R5.0,ANG,53,0,0.347473,-3.54786,8.33805
LOCAL,R5.0,PRM,53,0,1.0,1.0
CSCIR,53,0,0
LOCAL,R5.0,LOC,54,0,0.0779755,0.00749123,0.000282097
LOCAL,R5.0,ANG,54,0,0.510748,-3.94351,9.16564
LOCAL,R5.0,PRM,54,0,1.0,1.0
CSCIR,54,0,0
LOCAL,R5.0,LOC,55,0,0.0783945,0.00668716,0.000272271
LOCAL,R5.0,ANG,55,0,0.417494,-3.84823,5.97128
LOCAL,R5.0,PRM,55,0,1.0,1.0
CSCIR,55,0,0
LOCAL,R5.0,LOC,56,0,0.0783768,0.00593997,0.000291268
LOCAL,R5.0,ANG,56,0,-0.218319,-0.949741,8.06645
LOCAL,R5.0,PRM,56,0,1.0,1.0
CSCIR,56,0,0
LOCAL,R5.0,LOC,57,0,0.0779008,0.00514996,0.000331463
LOCAL,R5.0,ANG,57,0,-0.00832003,1.51039,6.17518
LOCAL,R5.0,PRM,57,0,1.0,1.0
CSCIR,57,0,0
LOCAL,R5.0,LOC,58,0,0.0774225,0.00425566,0.00034033
LOCAL,R5.0,ANG,58,0,-0.136641,2.5974,5.02898
LOCAL,R5.0,PRM,58,0,1.0,1.0
CSCIR,58,0,0
LOCAL,R5.0,LOC,59,0,0.0769817,0.00329883,0.000331207
LOCAL,R5.0,ANG,59,0,-0.24056,3.17575,5.34429
LOCAL,R5.0,PRM,59,0,1.0,1.0
CSCIR,59,0,0
LOCAL,R5.0,LOC,60,0,0.0765066,0.00234983,0.000328192
LOCAL,R5.0,ANG,60,0,-0.198373,2.58853,5.23464
LOCAL,R5.0,PRM,60,0,1.0,1.0
CSCIR,60,0,0
LOCAL,R5.0,LOC,61,0,0.0760435,0.00142458,0.000323305
LOCAL,R5.0,ANG,61,0,-0.334731,3.63433,5.65845
LOCAL,R5.0,PRM,61,0,1.0,1.0
CSCIR,61,0,0
LOCAL,R5.0,LOC,62,0,0.0756314,0.00048085,0.000313329
LOCAL,R5.0,ANG,62,0,-0.14145,2.63069,7.1577
LOCAL,R5.0,PRM,62,0,1.0,1.0
CSCIR,62,0,0
LOCAL,R5.0,LOC,63,0,0.0745686,0.000532247,0.000437776
LOCAL,R5.0,ANG,63,0,-0.0784022,1.25129,7.17032
LOCAL,R5.0,PRM,63,0,1.0,1.0
CSCIR,63,0,0
LOCAL,R5.0,LOC,64,0,0.0764914,0.00558153,0.00144186
LOCAL,R5.0,ANG,64,0,-0.265998,5.1944,5.85895
LOCAL,R5.0,PRM,64,0,1.0,1.0
CSCIR,64,0,0
LOCAL,R5.0,LOC,65,0,0.0763715,0.0202206,0.00139143
LOCAL,R5.0,ANG,65,0,0.409646,-5.68231,10.6207
LOCAL,R5.0,PRM,65,0,1.0,1.0
CSCIR,65,0,0
LOCAL,R5.0,LOC,66,0,0.0754397,0.00260308,0.00138676
LOCAL,R5.0,ANG,66,0,-0.684017,6.52769,11.9269
LOCAL,R5.0,PRM,66,0,1.0,1.0
CSCIR,66,0,0
LOCAL,R5.0,LOC,67,0,0.0760135,0.00364095,0.00138874
LOCAL,R5.0,ANG,67,0,-0.782175,5.83997,12.1795
LOCAL,R5.0,PRM,67,0,1.0,1.0
CSCIR,67,0,0
LOCAL,R5.0,LOC,68,0,0.0770917,0.00588247,0.00139603
LOCAL,R5.0,ANG,68,0,-1.20009,5.89814,13.8725
LOCAL,R5.0,PRM,68,0,1.0,1.0
CSCIR,68,0,0
LOCAL,R5.0,LOC,69,0,0.0763747,0.00472355,0.00140178
LOCAL,R5.0,ANG,69,0,-0.934615,6.7756,11.0241
LOCAL,R5.0,PRM,69,0,1.0,1.0
CSCIR,69,0,0
LOCAL,R5.0,LOC,70,0,0.0761798,0.00894378,0.00136606
LOCAL,R5.0,ANG,70,0,1.36706,-7.58315,15.0141
LOCAL,R5.0,PRM,70,0,1.0,1.0
CSCIR,70,0,0
LOCAL,R5.0,LOC,71,0,0.0771963,0.0072081,0.00135728
LOCAL,R5.0,ANG,71,0,1.1876,-9.05113,17.0176
LOCAL,R5.0,PRM,71,0,1.0,1.0
CSCIR,71,0,0
LOCAL,R5.0,LOC,72,0,0.076693,0.00807795,0.00136243
LOCAL,R5.0,ANG,72,0,1.55151,-8.5114,17.5552
LOCAL,R5.0,PRM,72,0,1.0,1.0
CSCIR,72,0,0
LOCAL,R5.0,LOC,73,0,0.0752687,0.0107757,0.0013635
LOCAL,R5.0,ANG,73,0,1.1715,-7.07772,14.1199
LOCAL,R5.0,PRM,73,0,1.0,1.0
CSCIR,73,0,0
LOCAL,R5.0,LOC,74,0,0.0746615,0.0130461,0.00136694
LOCAL,R5.0,ANG,74,0,-1.27173,3.16281,18.2502
LOCAL,R5.0,PRM,74,0,1.0,1.0
CSCIR,74,0,0
LOCAL,R5.0,LOC,75,0,0.0748917,0.011853,0.00135867
LOCAL,R5.0,ANG,75,0,0.712832,-5.19221,16.6272
LOCAL,R5.0,PRM,75,0,1.0,1.0
CSCIR,75,0,0
LOCAL,R5.0,LOC,76,0,0.0754358,0.0152305,0.00139028
LOCAL,R5.0,ANG,76,0,-0.463224,5.07023,9.96347
LOCAL,R5.0,PRM,76,0,1.0,1.0
CSCIR,76,0,0
LOCAL,R5.0,LOC,77,0,0.0748871,0.0141741,0.00138362
LOCAL,R5.0,ANG,77,0,-0.897009,5.80572,9.84323
LOCAL,R5.0,PRM,77,0,1.0,1.0
CSCIR,77,0,0
LOCAL,R5.0,LOC,78,0,0.0766063,0.0171776,0.00137804
LOCAL,R5.0,ANG,78,0,-0.467962,6.24143,12.533
LOCAL,R5.0,PRM,78,0,1.0,1.0
CSCIR,78,0,0
LOCAL,R5.0,LOC,79,0,0.0771058,0.0180179,0.00136949
LOCAL,R5.0,ANG,79,0,-0.445614,6.49332,13.0005
LOCAL,R5.0,PRM,79,0,1.0,1.0
CSCIR,79,0,0
LOCAL,R5.0,LOC,80,0,0.07706,0.0193993,0.0013762
LOCAL,R5.0,ANG,80,0,0.554023,-7.41367,13.17
LOCAL,R5.0,PRM,80,0,1.0,1.0
CSCIR,80,0,0
LOCAL,R5.0,LOC,81,0,0.0754319,0.0223145,0.00139117
LOCAL,R5.0,ANG,81,0,0.636382,-4.82,9.59091
LOCAL,R5.0,PRM,81,0,1.0,1.0
CSCIR,81,0,0
LOCAL,R5.0,LOC,82,0,0.0758117,0.0212208,0.00139685
LOCAL,R5.0,ANG,82,0,0.246583,-3.69199,8.04682
LOCAL,R5.0,PRM,82,0,1.0,1.0
CSCIR,82,0,0
LOCAL,R5.0,LOC,83,0,0.0750335,0.0233908,0.00138096
LOCAL,R5.0,ANG,83,0,0.619317,-6.57168,13.2111
LOCAL,R5.0,PRM,83,0,1.0,1.0
CSCIR,83,0,0
LOCAL,R5.0,LOC,84,0,0.0776751,0.00642603,0.00127414
LOCAL,R5.0,ANG,84,0,-0.979125,-1.65319,16.7164
LOCAL,R5.0,PRM,84,0,1.0,1.0
CSCIR,84,0,0
LOCAL,R5.0,LOC,85,0,0.0748992,0.00158031,0.00138368
LOCAL,R5.0,ANG,85,0,-1.11913,5.73642,11.6044
LOCAL,R5.0,PRM,85,0,1.0,1.0
CSCIR,85,0,0
LOCAL,R5.0,LOC,86,0,0.0776538,0.0187171,0.00127196
LOCAL,R5.0,ANG,86,0,0.764966,3.24818,17.9121
LOCAL,R5.0,PRM,86,0,1.0,1.0
CSCIR,86,0,0
LOCAL,R5.0,LOC,87,0,0.0746333,0.0244642,0.00137295
LOCAL,R5.0,ANG,87,0,0.70846,-6.13716,14.5449
LOCAL,R5.0,PRM,87,0,1.0,1.0
CSCIR,87,0,0
LOCAL,R5.0,LOC,88,0,0.07565,0.0245174,0.00111602
LOCAL,R5.0,ANG,88,0,1.5573,-7.64903,12.6047
LOCAL,R5.0,PRM,88,0,1.0,1.0
CSCIR,88,0,0
LOCAL,R5.0,LOC,89,0,0.0760794,0.0235549,0.00114157
LOCAL,R5.0,ANG,89,0,1.19915,-7.67645,10.2118
LOCAL,R5.0,PRM,89,0,1.0,1.0
CSCIR,89,0,0
LOCAL,R5.0,LOC,90,0,0.0765113,0.0225943,0.00117265
LOCAL,R5.0,ANG,90,0,0.768412,-6.57597,8.32031
LOCAL,R5.0,PRM,90,0,1.0,1.0
CSCIR,90,0,0
LOCAL,R5.0,LOC,91,0,0.0769413,0.021652,0.00118992
LOCAL,R5.0,ANG,91,0,0.420419,-4.58518,8.40236
LOCAL,R5.0,PRM,91,0,1.0,1.0
CSCIR,91,0,0
LOCAL,R5.0,LOC,92,0,0.0774195,0.0207481,0.0011733
LOCAL,R5.0,ANG,92,0,0.0233542,-2.84377,12.1115
LOCAL,R5.0,PRM,92,0,1.0,1.0
CSCIR,92,0,0
LOCAL,R5.0,LOC,93,0,0.0779368,0.0198967,0.00112721
LOCAL,R5.0,ANG,93,0,0.217787,-3.68256,16.2636
LOCAL,R5.0,PRM,93,0,1.0,1.0
CSCIR,93,0,0
LOCAL,R5.0,LOC,94,0,0.0783979,0.0191123,0.00106379
LOCAL,R5.0,ANG,94,0,0.711251,-3.56794,11.7826
LOCAL,R5.0,PRM,94,0,1.0,1.0
CSCIR,94,0,0
LOCAL,R5.0,LOC,95,0,0.0783857,0.0183573,0.00106002
LOCAL,R5.0,ANG,95,0,-1.24692,1.52967,16.5366
LOCAL,R5.0,PRM,95,0,1.0,1.0
CSCIR,95,0,0
LOCAL,R5.0,LOC,96,0,0.0779408,0.017565,0.00110668
LOCAL,R5.0,ANG,96,0,-0.417913,4.54654,13.8484
LOCAL,R5.0,PRM,96,0,1.0,1.0
CSCIR,96,0,0
LOCAL,R5.0,LOC,97,0,0.0774753,0.0167085,0.00113272
LOCAL,R5.0,ANG,97,0,-0.347992,4.02576,12.1895
LOCAL,R5.0,PRM,97,0,1.0,1.0
CSCIR,97,0,0
LOCAL,R5.0,LOC,98,0,0.0769888,0.0158095,0.00115569
LOCAL,R5.0,ANG,98,0,-0.32491,3.47713,10.694
LOCAL,R5.0,PRM,98,0,1.0,1.0
CSCIR,98,0,0
LOCAL,R5.0,LOC,99,0,0.0764966,0.0148823,0.00116974
LOCAL,R5.0,ANG,99,0,-0.571466,4.3058,9.82924
LOCAL,R5.0,PRM,99,0,1.0,1.0
CSCIR,99,0,0
LOCAL,R5.0,LOC,100,0,0.0760358,0.0139413,0.00115008
LOCAL,R5.0,ANG,100,0,-1.73277,9.11805,11.309
LOCAL,R5.0,PRM,100,0,1.0,1.0
CSCIR,100,0,0
LOCAL,R5.0,LOC,101,0,0.0756846,0.0129793,0.00109756
LOCAL,R5.0,ANG,101,0,-5.64823,13.9515,22.0623
LOCAL,R5.0,PRM,101,0,1.0,1.0
CSCIR,101,0,0
LOCAL,R5.0,LOC,102,0,0.0757422,0.011998,0.00107183
LOCAL,R5.0,ANG,102,0,1.94939,-8.36938,15.9995
LOCAL,R5.0,PRM,102,0,1.0,1.0
CSCIR,102,0,0
LOCAL,R5.0,LOC,103,0,0.076156,0.0110432,0.00108821
LOCAL,R5.0,ANG,103,0,1.70545,-8.73269,14.0144
LOCAL,R5.0,PRM,103,0,1.0,1.0
CSCIR,103,0,0
LOCAL,R5.0,LOC,104,0,0.0766031,0.0101273,0.00110043
LOCAL,R5.0,ANG,104,0,1.24332,-7.05033,14.608
LOCAL,R5.0,PRM,104,0,1.0,1.0
CSCIR,104,0,0
LOCAL,R5.0,LOC,105,0,0.0770605,0.00923659,0.00109565
LOCAL,R5.0,ANG,105,0,1.2581,-6.85271,15.7272
LOCAL,R5.0,PRM,105,0,1.0,1.0
CSCIR,105,0,0
LOCAL,R5.0,LOC,106,0,0.0775188,0.00835466,0.0010843
LOCAL,R5.0,ANG,106,0,1.38848,-6.9789,16.7614
LOCAL,R5.0,PRM,106,0,1.0,1.0
CSCIR,106,0,0
LOCAL,R5.0,LOC,107,0,0.0779755,0.00749123,0.00106928
LOCAL,R5.0,ANG,107,0,1.9701,-7.47417,18.5103
LOCAL,R5.0,PRM,107,0,1.0,1.0
CSCIR,107,0,0
LOCAL,R5.0,LOC,108,0,0.0783945,0.00668716,0.00104744
LOCAL,R5.0,ANG,108,0,1.67239,-7.37292,12.2859
LOCAL,R5.0,PRM,108,0,1.0,1.0
CSCIR,108,0,0
LOCAL,R5.0,LOC,109,0,0.0783768,0.00593997,0.00108505
LOCAL,R5.0,ANG,109,0,-0.858013,-2.06449,16.0832
LOCAL,R5.0,PRM,109,0,1.0,1.0
CSCIR,109,0,0
LOCAL,R5.0,LOC,110,0,0.0779008,0.00514996,0.00116538
LOCAL,R5.0,ANG,110,0,-0.0419569,3.05535,12.2806
LOCAL,R5.0,PRM,110,0,1.0,1.0
CSCIR,110,0,0
LOCAL,R5.0,LOC,111,0,0.0774225,0.00425566,0.00118279
LOCAL,R5.0,ANG,111,0,-0.545867,5.16293,10.0846
LOCAL,R5.0,PRM,111,0,1.0,1.0
CSCIR,111,0,0
LOCAL,R5.0,LOC,112,0,0.0769817,0.00329883,0.00116494
LOCAL,R5.0,ANG,112,0,-0.957815,6.26365,10.7534
LOCAL,R5.0,PRM,112,0,1.0,1.0
CSCIR,112,0,0
LOCAL,R5.0,LOC,113,0,0.0765066,0.00234983,0.00115899
LOCAL,R5.0,ANG,113,0,-0.790196,5.11173,10.5118
LOCAL,R5.0,PRM,113,0,1.0,1.0
CSCIR,113,0,0
LOCAL,R5.0,LOC,114,0,0.0760435,0.00142458,0.0011496
LOCAL,R5.0,ANG,114,0,-1.32394,7.0886,11.4169
LOCAL,R5.0,PRM,114,0,1.0,1.0
CSCIR,114,0,0
LOCAL,R5.0,LOC,115,0,0.0756314,0.00048085,0.00112936
LOCAL,R5.0,ANG,115,0,-0.582189,5.26201,14.5575
LOCAL,R5.0,PRM,115,0,1.0,1.0
CSCIR,115,0,0
LOCAL,R5.0,LOC,116,0,0.0745686,0.000532247,0.00137739
LOCAL,R5.0,ANG,116,0,-0.303148,2.44592,14.1284
LOCAL,R5.0,PRM,116,0,1.0,1.0
CSCIR,116,0,0
LOCAL,R5.0,LOC,117,0,0.07993,0.0143166,0.0005
LOCAL,R5.0,ANG,117,0,-3.18055e-15,0,-0
LOCAL,R5.0,PRM,117,0,1.0,1.0
CSCIR,117,0,0
LOCAL,R5.0,LOC,118,0,0.0792994,0.00580549,0.000609577
LOCAL,R5.0,ANG,118,0,-20.9289,28.0731,39.4801
LOCAL,R5.0,PRM,118,0,1.0,1.0
CSCIR,118,0,0
LOCAL,R5.0,LOC,119,0,0.0792422,0.00677081,0.000609577
LOCAL,R5.0,ANG,119,0,-1.3043,-23.4227,-6.28587
LOCAL,R5.0,PRM,119,0,1.0,1.0
CSCIR,119,0,0
LOCAL,R5.0,LOC,120,0,0.0766374,0.0120353,0.000604956
LOCAL,R5.0,ANG,120,0,-4.90083,12.622,23.2266
LOCAL,R5.0,PRM,120,0,1.0,1.0
CSCIR,120,0,0
LOCAL,R5.0,LOC,121,0,0.0792425,0.0183123,0.000607772
LOCAL,R5.0,ANG,121,0,-23.8974,25.8712,45.4695
LOCAL,R5.0,PRM,121,0,1.0,1.0
CSCIR,121,0,0
LOCAL,R5.0,LOC,122,0,0.0791981,0.0192757,0.000607772
LOCAL,R5.0,ANG,122,0,-1.32572,-22.9183,-6.5332
LOCAL,R5.0,PRM,122,0,1.0,1.0
CSCIR,122,0,0
LOCAL,R5.0,LOC,123,0,0.0765522,0.0246144,0.00061825
LOCAL,R5.0,ANG,123,0,0.0902667,-0.402234,25.2967
LOCAL,R5.0,PRM,123,0,1.0,1.0
CSCIR,123,0,0
LOCAL,R5.0,LOC,124,0,0.0766291,0.000432191,0.000622216
LOCAL,R5.0,ANG,124,0,0.233788,-16.7672,25.1215
LOCAL,R5.0,PRM,124,0,1.0,1.0
CSCIR,124,0,0
CSYS,0
EBLOCK,19,SOLID,     9787
(19i9)
        1      185        0        1       11        0        0        0        8        0     3915     4467     4468     4469     4469     4470     4471     4472     4472
        1      185        0        2       12        0        0        0        8        0     3916     4473     4474     4475     4475     4476     4477     4478     4478
        1      185        0        2       12        0        0        0        8        0     3917     4479     4480     4481     4481     4482     4483     4484     4484
        1      185        0        2       12        0        0        0        8        0     3918     4485     4486     4487     4487     4488     4489     4490     4490
        1      185        0        2       12        0        0        0        8        0     3919     4491     4492     4493     4493     4494     4495     4496     4496
        1      185        0        2       12        0        0        0        8        0     3920     4497     4498     4499     4499     4500     4501     4502     4502
        1      185        0        2       12        0        0        0        8        0     3921     4503     4504     4505     4505     4506     4507     4508     4508
        1      185        0        3       13        0        0        0        8        0     3922     4509     4510     4511     4512     4513     4514     4515     4516
        1      185        0        2       12        0        0        0        8        0     3923     4517     4509     4512     4518     4519     4513     4516     4520
        1      185        0        2       12        0        0        0        8        0     3924     4512     4521     4522     4518     4516     4523     4524     4520
        1      185        0        2       12        0        0        0        8        0     3925     4525     4526     4522     4521     4527     4528     4524     4523
        1      185        0        2       12        0        0        0        8        0     3926     4473     4475     4525     4521     4476     4478     4527     4523
        1      185        0        2       12        0        0        0        8        0     3927     4521     4512     4529     4473     4523     4516     4530     4476
        1      185        0        2       12        0        0        0        8        0     3928     4531     4532     4533     4534     4535     4536     4537     4538
        1      185        0        2       12        0        0        0        8        0     3929     4532     4531     4491     4486     4536     4535     4494     4489
        1      185        0        2       12        0        0        0        8        0     3930     4491     4493     4487     4486     4494     4496     4490     4489
        1      185        0        2       12        0        0        0        8        0     3931     4492     4539     4540     4541     4495     4542     4543     4544
        1      185        0        2       12        0        0        0        8        0     3932     4492     4491     4531     4539     4495     4494     4535     4542
        1      185        0        2       12        0        0        0        8        0     3933     4545     4546     4547     4548     4549     4550     4551     4552
        1      185        0        2       12        0        0        0        8        0     3934     4553     4554     4546     4545     4555     4556     4550     4549
! ... 9768 like lines cut
! GUID 9f9a099c-8863-4bcf-af1f-78ff9a1c0571
! Material 1 = Carbon Fiber (230 GPa)
MP,EX,1,230000000000,	! Pa
MP,EY,1,23000000000,	! Pa
MP,EZ,1,23000000000,	! Pa
MP,PRXY,1,0.2,
MP,PRYZ,1,0.4,
MP,PRXZ,1,0.2,
MP,GXY,1,9000000000,	! Pa
MP,GYZ,1,8214285714,	! Pa
MP,GXZ,1,9000000000,	! Pa
MP,DENS,1,1800,	! kg m^-3

! GUID 12d6a61a-827f-4f84-8206-54f3186f9077
! Material 2 = Resin Epoxy
MP,DENS,2,1160,	! kg m^-3
MP,EX,2,3780000000,	! Pa
MP,NUXY,2,0.35,

SECTYPE,1,SHELL
SECOFFSET,USER,0
SECBLOCK,1
0.000939244622,1,0,3
SECTYPE,2,SHELL
SECOFFSET,USER,0
SECBLOCK,1
0.001,1,0,3
SECTYPE,3,SHELL
SECOFFSET,USER,0
SECBLOCK,1
0.000888333946,1,0,3
SECTYPE,4,SHELL
SECOFFSET,USER,0
SECBLOCK,1
0.000878915827,1,0,3
SECTYPE,5,SHELL
SECOFFSET,USER,0
SECBLOCK,1
0.000887034375,1,0,3
SECTYPE,6,SHELL
SECOFFSET,USER,0
SECBLOCK,1
0.000895020235,1,0,3
SECTYPE,7,SHELL
SECOFFSET,USER,0
SECBLOCK,1
0.000851476385,1,0,3
SECTYPE,8,SHELL
SECOFFSET,USER,0
SECBLOCK,1
0.000842460375,1,0,3
SECTYPE,9,SHELL
SECOFFSET,USER,0
SECBLOCK,1
0.000881015338,1,0,3
SECTYPE,10,SHELL
SECOFFSET,USER,0
SECBLOCK,1
0.000869998968,1,0,3
SECTYPE,11,SHELL
SECOFFSET,USER,0
SECBLOCK,1
0.000860571485,1,0,3
SECTYPE,12,SHELL
SECOFFSET,USER,0
SECBLOCK,1
0.000867064962,1,0,3
SECTYPE,13,SHELL
SECOFFSET,USER,0
SECBLOCK,1
0.000872197583,1,0,3
SECTYPE,14,SHELL
SECOFFSET,USER,0
SECBLOCK,1
0.000763102721,1,0,3
SECTYPE,15,SHELL
SECOFFSET,USER,0
SECBLOCK,1
0.000759678322,1,0,3
SECTYPE,16,SHELL
SECOFFSET,USER,0
SECBLOCK,1
0.000862652249,1,0,3
SECTYPE,17,SHELL
SECOFFSET,USER,0
SECBLOCK,1
0.000608437577,1,0,3
SECTYPE,18,SHELL
SECOFFSET,USER,0
SECBLOCK,1
0.000634964639,1,0,3
SECTYPE,19,SHELL
SECOFFSET,USER,0
SECBLOCK,1
0.000667884286,1,0,3
SECTYPE,20,SHELL
SECOFFSET,USER,0
SECBLOCK,1
0.000685883434,1,0,3
SECTYPE,21,SHELL
SECOFFSET,USER,0
SECBLOCK,1
0.000667069247,1,0,3
SECTYPE,22,SHELL
SECOFFSET,USER,0
SECBLOCK,1
0.000617753353,1,0,3
SECTYPE,23,SHELL
SECOFFSET,USER,0
SECBLOCK,1
0.000558498563,1,0,3
SECTYPE,24,SHELL
SECOFFSET,USER,0
SECBLOCK,1
0.000551446354,1,0,3
SECTYPE,25,SHELL
SECOFFSET,USER,0
SECBLOCK,1
0.000598202249,1,0,3
SECTYPE,26,SHELL
SECOFFSET,USER,0
SECBLOCK,1
0.000625993516,1,0,3
SECTYPE,27,SHELL
SECOFFSET,USER,0
SECBLOCK,1
0.00065024289,1,0,3
SECTYPE,28,SHELL
SECOFFSET,USER,0
SECBLOCK,1
0.000664626709,1,0,3
SECTYPE,29,SHELL
SECOFFSET,USER,0
SECBLOCK,1
0.000642057521,1,0,3
SECTYPE,30,SHELL
SECOFFSET,USER,0
SECBLOCK,1
0.000579876426,1,0,3
SECTYPE,31,SHELL
SECOFFSET,USER,0
SECBLOCK,1
0.000560842446,1,0,3
SECTYPE,32,SHELL
SECOFFSET,USER,0
SECBLOCK,1
0.000577189119,1,0,3
SECTYPE,33,SHELL
SECOFFSET,USER,0
SECBLOCK,1
0.000586688463,1,0,3
SECTYPE,34,SHELL
SECOFFSET,USER,0
SECBLOCK,1
0.000571125286,1,0,3
SECTYPE,35,SHELL
SECOFFSET,USER,0
SECBLOCK,1
0.000555671979,1,0,3
SECTYPE,36,SHELL
SECOFFSET,USER,0
SECBLOCK,1
0.000540366165,1,0,3
SECTYPE,37,SHELL
SECOFFSET,USER,0
SECBLOCK,1
0.000576693161,1,0,3
SECTYPE,38,SHELL
SECOFFSET,USER,0
SECBLOCK,1
0.000658851235,1,0,3
SECTYPE,39,SHELL
SECOFFSET,USER,0
SECBLOCK,1
0.000677342706,1,0,3
SECTYPE,40,SHELL
SECOFFSET,USER,0
SECBLOCK,1
0.000655750272,1,0,3
SECTYPE,41,SHELL
SECOFFSET,USER,0
SECBLOCK,1
0.000642165693,1,0,3
SECTYPE,42,SHELL
SECOFFSET,USER,0
SECBLOCK,1
0.000621119214,1,0,3
SECTYPE,43,SHELL
SECOFFSET,USER,0
SECBLOCK,1
0.000868498264,1,0,3
SECTYPE,44,SHELL
SECOFFSET,USER,0
SECBLOCK,1
0.000999928278,1,0,3
SECTYPE,45,SHELL
SECOFFSET,USER,0
SECBLOCK,1
0.000980567659,1,0,3
SECTYPE,46,SHELL
SECOFFSET,USER,0
SECBLOCK,1
0.000976598868,1,0,3
SECTYPE,47,SHELL
SECOFFSET,USER,0
SECBLOCK,1
0.000967493784,1,0,3
SECTYPE,48,SHELL
SECOFFSET,USER,0
SECBLOCK,1
0.000964628477,1,0,3
SECTYPE,49,SHELL
SECOFFSET,USER,0
SECBLOCK,1
0.000949147625,1,0,3
SECTYPE,50,SHELL
SECOFFSET,USER,0
SECBLOCK,1
0.0009523069,1,0,3
SECTYPE,51,SHELL
SECOFFSET,USER,0
SECBLOCK,1
0.000972068578,1,0,3
SECTYPE,52,SHELL
SECOFFSET,USER,0
SECBLOCK,1
0.000969263927,1,0,3
SECTYPE,53,SHELL
SECOFFSET,USER,0
SECBLOCK,1
0.00095462261,1,0,3
SECTYPE,54,SHELL
SECOFFSET,USER,0
SECBLOCK,1
0.000980481576,1,0,3
SECTYPE,55,SHELL
SECOFFSET,USER,0
SECBLOCK,1
0.000973534283,1,0,3
SECTYPE,56,SHELL
SECOFFSET,USER,0
SECBLOCK,1
0.000905126162,1,0,3
SECTYPE,57,SHELL
SECOFFSET,USER,0
SECBLOCK,1
0.000982627854,1,0,3
SECTYPE,58,SHELL
SECOFFSET,USER,0
SECBLOCK,1
0.001,1,0,3
SECTYPE,59,SHELL
SECOFFSET,USER,0
SECBLOCK,1
0.000681036215,1,0,3
SECTYPE,60,SHELL
SECOFFSET,USER,0
SECBLOCK,1
0.000912080314,1,0,3
SECTYPE,61,SHELL
SECOFFSET,USER,0
SECBLOCK,1
0.000896743967,1,0,3
SECTYPE,62,SHELL
SECOFFSET,USER,0
SECBLOCK,1
0.000631003558,1,0,3
SECTYPE,63,SHELL
SECOFFSET,USER,0
SECBLOCK,1
0.000915079925,1,0,3
SECTYPE,64,SHELL
SECOFFSET,USER,0
SECBLOCK,1
0.000904084987,1,0,3
SECTYPE,65,SHELL
SECOFFSET,USER,0
SECBLOCK,1
0.000866916186,1,0,3
SECTYPE,66,SHELL
SECOFFSET,USER,0
SECBLOCK,1
0.001,1,0,3
SECTYPE,67,SHELL
SECOFFSET,USER,0
SECBLOCK,1
0.001,1,0,3
CMBLOCK,_ACP_SolidModel.1_10_wall,NODE,       78  ! users node component definition
(8i10)
     14542     14543     14544     14545     14546     14547     14548     14549
     14550     14551     14552     14553     14554     14555     14556     14557
     14558     14559     14560     14561     14562     14563     14564     14565
     14566     14567     14568     14569     14570     14571     14572     14573
     14574     14575     14576     14577     14578     14579     14580     14581
     14582     14583     14584     14585     14586     14587     14588     14589
     14590     14591     14593     14595     18758     18759     18760     18761
     18762     18763     18764     18765     18766     18767     18768     18769
     18770     18771     18772     18773     18774     18775     18776     18777
     18778     18779     18780     18781     18782     18784
CMBLOCK,_ACP_SolidModel.1_11_wall,NODE,      239  ! users node component definition
(8i10)
      8432     14592     14593     14594     14595     14596     14597     14598
     14599     14600     14601     14602     14603     14604     14605     14606
     14607     14608     14609     14610     14611     14612     14613     14614
     14615     14616     14617     14618     14619     14620     14621     14622
     14623     14624     14625     14626     14627     14628     14629     14630
     14631     14632     14633     14634     14635     14636     14637     14638
     14639     14640     14641     14642     14643     14644     14645     14646
     14647     14648     14649     14650     14651     14652     14653     14654
     14655     14656     14657     14658     14659     14660     14661     14662
     14663     14664     14665     14666     14667     14668     14669     14670
     14671     14672     14673     14674     14675     14676     14677     14678
     14679     14680     14681     14682     14683     14684     14685     14686
     14687     14688     14689     14690     14691     14692     14693     14694
     14695     14696     14697     14698     14699     14700     14701     14702
     14703     14704     14705     14706     14707     14708     14709     14710
     14711     14712     14713     14714     14715     14716     14717     14718
     14719     14720     14721     14722     14723     14724     14725     14726
     14727     14728     14729     14730     14731     14732     14733     14734
     14735     14736     14737     14738     14739     14740     14741     14742
     14743     14744     14745     14746     14747     14748     14749     16733
! ... 10 like lines cut
CMBLOCK,_ACP_SolidModel.1_12_wall,NODE,      308  ! users node component definition
(8i10)
      8223      8224      8225      8226      8227      8228      8229      8230
      8231      8232      8233      8234      8235      8236      8237      8238
      8239      8240      8241      8242      8243      8244      8245      8246
      8247      8248      8249      8250      8251      8252      8253      8254
      8255      8256      8257      8258      8259      8260      8261      8262
      8263      8264      8265      8266      8267      8268      8269      8270
      8271      8272      8273      8274      8275      8276      8277      8278
      8279      8280      8281      8282      8283      8284      8285      8286
      8287      8288      8289      8290      8291      8292      8293      8294
      8295      8296      8297      8298      8299      8300      8301      8302
      8303      8304      8305      8306      8307      8308      8309      8310
      8311      8312      8313      8314      8315      8316      8317      8318
      8319      8320      8321      8322      8323      8324      8325      8326
      8327      8328      8329      8330      8331      8332      8333      8334
      8335      8336      8337      8338      8339      8340      8341      8342
      8343      8344      8345      8346      8347      8348      8349      8350
      8351      8352      8353      8354      8355      8356      8357      8358
      8359      8360      8361      8362      8363      8364      8365      8366
      8367      8368      8369      8370      8371      8372      8373      8374
      8376      8378     10463     10464     10465     10466     10467     10468
! ... 19 like lines cut
CMBLOCK,_ACP_SolidModel.1_13_wall,NODE,      104  ! users node component definition
(8i10)
      8175      8176      8177      8178      8179      8180      8181      8182
      8183      8184      8185      8186      8187      8188      8189      8190
      8191      8192      8193      8194      8195      8196      8197      8198
      8199      8200      8201      8202      8203      8204      8205      8206
      8207      8208      8209      8210      8211      8212      8213      8214
      8215      8216      8217      8218      8219      8220      8221      8222
      8224      8226      8583      8584     10439     10440     10441     10442
     10443     10444     10445     10446     10447     10448     10449     10450
     10451     10452     10453     10454     10455     10456     10457     10458
     10459     10460     10461     10462     10464     10643     16604     16605
     16606     16607     16608     16609     16610     16611     16612     16613
     16614     16615     16616     16617     16618     16619     16620     16621
     16622     16623     16624     16625     16626     16627     16629     16808

CMBLOCK,_ACP_SolidModel.1_14_wall,NODE,      308  ! users node component definition
(8i10)
      8431      8432      8433      8434      8435      8436      8437      8438
      8439      8440      8441      8442      8443      8444      8445      8446
      8447      8448      8449      8450      8451      8452      8453      8454
      8455      8456      8457      8458      8459      8460      8461      8462
      8463      8464      8465      8466      8467      8468      8469      8470
      8471      8472      8473      8474      8475      8476      8477      8478
      8479      8480      8481      8482      8483      8484      8485      8486
      8487      8488      8489      8490      8491      8492      8493      8494
      8495      8496      8497      8498      8499      8500      8501      8502
      8503      8504      8505      8506      8507      8508      8509      8510
      8511      8512      8513      8514      8515      8516      8517      8518
      8519      8520      8521      8522      8523      8524      8525      8526
      8527      8528      8529      8530      8531      8532      8533      8534
      8535      8536      8537      8538      8539      8540      8541      8542
      8543      8544      8545      8546      8547      8548      8549      8550
      8551      8552      8553      8554      8555      8556      8557      8558
      8559      8560      8561      8562      8563      8564      8565      8566
      8567      8568      8569      8570      8571      8572      8573      8574
      8575      8576      8577      8578      8579      8580      8581      8582
      8583      8584     10567     10568     10569     10570     10571     10572
! ... 19 like lines cut
CMBLOCK,_ACP_SolidModel.1_15_wall,NODE,       26  ! users node component definition
(8i10)
      8417      8418      8432      8434     10560     10568     14336     14337
     14338     14339     14340     14341     14342     14343     14344     14345
     14346     14347     16725     16733     18655     18656     18657     18658
     18659     18660
CMBLOCK,_ACP_SolidModel.1_16_wall,NODE,       26  ! users node component definition
(8i10)
      8403      8404      8417      8418     10553     10560     14348     14349
     14350     14351     14352     14353     14354     14355     14356     14357
     14358     14359     16718     16725     18661     18662     18663     18664
     18665     18666
CMBLOCK,_ACP_SolidModel.1_17_wall,NODE,       32  ! users node component definition
(8i10)
      8403      8404      8405      8406      8407      8408      8409      8410
      8411      8412      8413      8414      8415      8416      8417      8418
     10553     10554     10555     10556     10557     10558     10559     10560
     16718     16719     16720     16721     16722     16723     16724     16725

CMBLOCK,_ACP_SolidModel.1_18_wall,NODE,       32  ! users node component definition
(8i10)
      8417      8418      8419      8420      8421      8422      8423      8424
      8425      8426      8427      8428      8429      8430      8432      8434
     10560     10561     10562     10563     10564     10565     10566     10568
     16725     16726     16727     16728     16729     16730     16731     16733

CMBLOCK,_ACP_SolidModel.1_19_wall,NODE,       26  ! users node component definition
(8i10)
      8389      8390      8403      8404     10546     10553     14360     14361
     14362     14363     14364     14365     14366     14367     14368     14369
     14370     14371     16711     16718     18667     18668     18669     18670
     18671     18672
CMBLOCK,_ACP_SolidModel.1_1_bot,NODE,     2058  ! users node component definition
(8i10)
     16705     16711     16718     16725     16733     16809     16810     16811
     16812     16813     16814     16815     16816     16817     16818     16819
     16820     16821     16822     16823     16824     16825     16826     16827
     16828     16829     16830     16831     16832     16833     16834     16835
     16836     16837     16838     16839     16840     16841     16842     16843
     16844     16845     16846     16847     16848     16849     16850     16851
     16852     16853     16854     16855     16856     16857     16858     16859
     16860     16861     16862     16863     16864     16865     16866     16867
     16868     16869     16870     16871     16872     16873     16874     16875
     16876     16877     16878     16879     16880     16881     16882     16883
     16884     16885     16886     16887     16888     16889     16890     16891
     16892     16893     16894     16895     16896     16897     16898     16899
     16900     16901     16902     16903     16904     16905     16906     16907
     16908     16909     16910     16911     16912     16913     16914     16915
     16916     16917     16918     16919     16920     16921     16922     16923
     16924     16925     16926     16927     16928     16929     16930     16931
     16932     16933     16934     16935     16936     16937     16938     16939
     16940     16941     16942     16943     16944     16945     16946     16947
     16948     16949     16950     16951     16952     16953     16954     16955
     16956     16957     16958     16959     16960     16961     16962     16963
! ... 238 like lines cut
CMBLOCK,_ACP_SolidModel.1_1_top,NODE,     2058  ! users node component definition
(8i10)
     10540     10546     10553     10560     10568     10647     10648     10649
     10653     10654     10655     10659     10660     10661     10664     10665
     10669     10670     10671     10675     10676     10677     10681     10682
     10683     10688     10689     10690     10691     10695     10696     10697
     10699     10702     10703     10706     10707     10710     10711     10715
     10716     10717     10720     10721     10726     10727     10728     10729
     10732     10733     10737     10738     10739     10741     10746     10747
     10748     10749     10752     10753     10756     10757     10761     10762
     10763     10765     10770     10771     10772     10773     10775     10778
     10779     10782     10783     10786     10787     10790     10791     10794
     10795     10798     10799     10802     10803     10806     10807     10810
     10811     10814     10815     10818     10819     10822     10823     10826
     10827     10830     10831     10834     10835     10838     10839     10842
     10843     10846     10847     10850     10851     10854     10855     10858
     10859     10862     10863     10866     10867     10870     10871     10874
     10875     10878     10879     10882     10883     10886     10887     10890
     10891     10894     10895     10898     10899     10902     10903     10906
     10907     10910     10911     10914     10915     10918     10919     10922
     10923     10926     10927     10930     10931     10934     10935     10938
     10939     10942     10943     10946     10947     10950     10951     10954
! ... 238 like lines cut
CMBLOCK,_ACP_SolidModel.1_20_wall,NODE,       32  ! users node component definition
(8i10)
      8389      8390      8391      8392      8393      8394      8395      8396
      8397      8398      8399      8400      8401      8402      8403      8404
     10546     10547     10548     10549     10550     10551     10552     10553
     16711     16712     16713     16714     16715     16716     16717     16718

CMBLOCK,_ACP_SolidModel.1_21_wall,NODE,       26  ! users node component definition
(8i10)
      8376      8378      8389      8390     10540     10546     14372     14373
     14374     14375     14376     14377     14378     14379     14380     14381
     14383     14385     16705     16711     18673     18674     18675     18676
     18677     18679
CMBLOCK,_ACP_SolidModel.1_22_wall,NODE,       32  ! users node component definition
(8i10)
      8375      8376      8377      8378      8379      8380      8381      8382
      8383      8384      8385      8386      8387      8388      8389      8390
     10539     10540     10541     10542     10543     10544     10545     10546
     16704     16705     16706     16707     16708     16709     16710     16711

CMBLOCK,_ACP_SolidModel.1_2_bot,NODE,     2059  ! users node component definition
(8i10)
     14750     14751     14752     14753     14754     14755     14756     14757
     14758     14759     14760     14761     14762     14763     14764     14765
     14766     14767     14768     14769     14770     14771     14772     14773
     14774     14775     14776     14777     14778     14779     14780     14781
     14782     14783     14784     14785     14786     14787     14788     14789
     14790     14791     14792     14793     14794     14795     14796     14797
     14798     14799     14800     14801     14802     14803     14804     14805
     14806     14807     14808     14809     14810     14811     14812     14813
     14814     14815     14816     14817     14818     14819     14820     14821
     14822     14823     14824     14825     14826     14827     14828     14829
     14830     14831     14832     14833     14834     14835     14836     14837
     14838     14839     14840     14841     14842     14843     14844     14845
     14846     14847     14848     14849     14850     14851     14852     14853
     14854     14855     14856     14857     14858     14859     14860     14861
     14862     14863     14864     14865     14866     14867     14868     14869
     14870     14871     14872     14873     14874     14875     14876     14877
     14878     14879     14880     14881     14882     14883     14884     14885
     14886     14887     14888     14889     14890     14891     14892     14893
     14894     14895     14896     14897     14898     14899     14900     14901
     14902     14903     14904     14905     14906     14907     14908     14909
! ... 238 like lines cut
CMBLOCK,_ACP_SolidModel.1_2_top,NODE,     2059  ! users node component definition
(8i10)
      8585      8586      8587      8588      8589      8590      8591      8592
      8593      8594      8595      8596      8597      8598      8599      8600
      8601      8602      8603      8604      8605      8606      8607      8608
      8609      8610      8611      8612      8613      8614      8615      8616
      8617      8618      8619      8620      8621      8622      8623      8624
      8625      8626      8627      8628      8629      8630      8631      8632
      8633      8634      8635      8636      8637      8638      8639      8640
      8641      8642      8643      8644      8645      8646      8647      8648
      8649      8650      8651      8652      8653      8654      8655      8656
      8657      8658      8659      8660      8661      8662      8663      8664
      8665      8666      8667      8668      8669      8670      8671      8672
      8673      8674      8675      8676      8677      8678      8679      8680
      8681      8682      8683      8684      8685      8686      8687      8688
      8689      8690      8691      8692      8693      8694      8695      8696
      8697      8698      8699      8700      8701      8702      8703      8704
      8705      8706      8707      8708      8709      8710      8711      8712
      8713      8714      8715      8716      8717      8718      8719      8720
      8721      8722      8723      8724      8725      8726      8727      8728
      8729      8730      8731      8732      8733      8734      8735      8736
      8737      8738      8739      8740      8741      8742      8743      8744
! ... 238 like lines cut
CMBLOCK,_ACP_SolidModel.1_9_wall,NODE,      239  ! users node component definition
(8i10)
      8376     14386     14387     14388     14389     14390     14391     14392
     14393     14394     14395     14396     14397     14398     14399     14400
     14401     14402     14403     14404     14405     14406     14407     14408
     14409     14410     14411     14412     14413     14414     14415     14416
     14417     14418     14419     14420     14421     14422     14423     14424
     14425     14426     14427     14428     14429     14430     14431     14432
     14433     14434     14435     14436     14437     14438     14439     14440
     14441     14442     14443     14444     14445     14446     14447     14448
     14449     14450     14451     14452     14453     14454     14455     14456
     14457     14458     14459     14460     14461     14462     14463     14464
     14465     14466     14467     14468     14469     14470     14471     14472
     14473     14474     14475     14476     14477     14478     14479     14480
     14481     14482     14483     14484     14485     14486     14487     14488
     14489     14490     14491     14492     14493     14494     14495     14496
     14497     14498     14499     14500     14501     14502     14503     14504
     14505     14506     14507     14508     14509     14510     14511     14512
     14513     14514     14515     14516     14517     14518     14519     14520
     14521     14522     14523     14524     14525     14526     14527     14528
     14529     14530     14531     14532     14533     14534     14535     14536
     14537     14538     14539     14540     14541     14543     14545     16705
! ... 10 like lines cut
CMBLOCK,_ACP_SolidModel.1_free_10_wall,NODE,        6  ! users node component definition
(8i10)
      8417     14295     14302     14303     14346     14348
CMBLOCK,_ACP_SolidModel.1_free_11_wall,NODE,        6  ! users node component definition
(8i10)
      8403     14320     14332     14334     14358     14360
CMBLOCK,_ACP_SolidModel.1_free_12_wall,NODE,        6  ! users node component definition
(8i10)
      8389     14286     14287     14290     14370     14372
CMBLOCK,_ACP_SolidModel.1_free_13_wall,NODE,        4  ! users node component definition
(8i10)
      8376     14382     14383     14386
CMBLOCK,_ACP_SolidModel.1_free_14_wall,NODE,        4  ! users node component definition
(8i10)
      8432     14323     14337     14748
CMBLOCK,_ACP_SolidModel.1_free_1_wall,NODE,        4  ! users node component definition
(8i10)
      8418     14302     14303     14346
CMBLOCK,_ACP_SolidModel.1_free_2_wall,NODE,        4  ! users node component definition
(8i10)
      8418     14295     14302     14348
CMBLOCK,_ACP_SolidModel.1_free_3_wall,NODE,        6  ! users node component definition
(8i10)
      8404     14320     14332     14334     14358     14360
CMBLOCK,_ACP_SolidModel.1_free_4_wall,NODE,        4  ! users node component definition
(8i10)
      8390     14287     14290     14370
CMBLOCK,_ACP_SolidModel.1_free_5_wall,NODE,        4  ! users node component definition
(8i10)
      8390     14286     14287     14372
CMBLOCK,_ACP_SolidModel.1_free_6_wall,NODE,        4  ! users node component definition
(8i10)
      8378     14382     14383     14386
CMBLOCK,_ACP_SolidModel.1_free_7_wall,NODE,        4  ! users node component definition
(8i10)
      8378     10540     14386     14387
CMBLOCK,_ACP_SolidModel.1_free_8_wall,NODE,        4  ! users node component definition
(8i10)
      8434     14323     14337     14748
CMBLOCK,_ACP_SolidModel.1_free_9_wall,NODE,        4  ! users node component definition
(8i10)
      8434     10568     14748     14749
CMGRP,R5.2,SolidModel.1_All_Elements_bot,_ACP_SolidModel.1_1_bot
CMEDIT,SolidModel.1_All_Elements_bot,ADD,_ACP_SolidModel.1_2_bot
CMGRP,R5.2,SolidModel.1_All_Elements_top,_ACP_SolidModel.1_1_top
CMEDIT,SolidModel.1_All_Elements_top,ADD,_ACP_SolidModel.1_2_top
CMGRP,R5.2,SolidModel.1_left-load_bot,_ACP_SolidModel.1_2_bot
CMGRP,R5.2,SolidModel.1_left-load_top,_ACP_SolidModel.1_2_top
CMGRP,R5.2,SolidModel.1_left_bot,_ACP_SolidModel.1_2_bot
CMGRP,R5.2,SolidModel.1_left_top,_ACP_SolidModel.1_2_top
CMGRP,R5.2,SolidModel.1_right-load_bot,_ACP_SolidModel.1_1_bot
CMGRP,R5.2,SolidModel.1_right-load_top,_ACP_SolidModel.1_1_top
CMGRP,R5.2,SolidModel.1_right_bot,_ACP_SolidModel.1_1_bot
CMGRP,R5.2,SolidModel.1_right_top,_ACP_SolidModel.1_1_top
/GOPR
